Version 4
SHEET 1 956 712
WIRE -16 -368 -80 -368
WIRE 128 -368 64 -368
WIRE 160 -368 128 -368
WIRE 272 -368 240 -368
WIRE -544 -320 -544 -384
WIRE -544 -320 -576 -320
WIRE -208 -320 -544 -320
WIRE 128 -320 128 -368
WIRE -544 -256 -544 -320
WIRE -480 -256 -544 -256
WIRE -256 -256 -384 -256
WIRE 128 -224 128 -256
WIRE -480 -192 -560 -192
WIRE -336 -192 -384 -192
WIRE -480 -128 -560 -128
WIRE -208 -128 -208 -320
WIRE -208 -128 -384 -128
WIRE -480 -64 -560 -64
WIRE -352 -64 -384 -64
WIRE -416 160 -576 160
WIRE -272 176 -352 176
WIRE -128 176 -272 176
WIRE -112 176 -128 176
WIRE 16 176 -64 176
WIRE 144 176 96 176
WIRE 160 176 144 176
WIRE 208 176 192 176
WIRE 272 176 208 176
WIRE 384 176 384 96
WIRE 384 176 352 176
WIRE -416 192 -432 192
WIRE -272 192 -272 176
WIRE 384 224 384 176
WIRE -432 304 -432 192
WIRE -272 304 -272 272
WIRE -272 304 -432 304
WIRE -272 320 -272 304
WIRE 384 336 384 304
WIRE -944 480 -1008 480
WIRE -816 480 -864 480
WIRE -704 480 -752 480
WIRE -544 480 -624 480
WIRE -528 480 -544 480
WIRE -384 480 -384 208
WIRE -384 480 -480 480
WIRE -240 480 -384 480
FLAG 384 16 0
FLAG -384 144 0
FLAG -656 160 0
FLAG -272 400 0
FLAG 384 336 0
FLAG -384 544 0
FLAG -352 -64 0
FLAG -656 -320 0
FLAG -336 -192 0
FLAG -240 544 0
FLAG 128 -224 0
FLAG -160 -368 0
FLAG 272 -368 0
FLAG -1088 480 0
SYMBOL voltage -848 480 R90
WINDOW 0 32 56 VTop 2
WINDOW 3 -32 56 VBottom 2
WINDOW 123 0 0 Left 2
WINDOW 39 0 0 Left 2
SYMATTR InstName V1
SYMATTR Value 12
SYMBOL res 112 160 R90
WINDOW 0 0 56 VBottom 2
WINDOW 3 32 56 VTop 2
SYMATTR InstName human
SYMATTR Value 7k
SYMBOL res 368 0 R0
SYMATTR InstName Arduino_anlong_input
SYMATTR Value 100mega
SYMBOL res 400 320 R180
WINDOW 0 36 76 Left 2
WINDOW 3 36 40 Left 2
SYMATTR InstName R4
SYMATTR Value 511
SYMBOL voltage -560 160 M270
WINDOW 0 32 56 VTop 2
WINDOW 3 60 56 VTop 2
WINDOW 123 0 0 Left 2
WINDOW 39 0 0 Left 2
SYMATTR InstName DAC_output
SYMATTR Value 5
SYMBOL res -288 304 R0
SYMATTR InstName R2
SYMATTR Value 3.330k
SYMBOL res -288 176 R0
SYMATTR InstName R3
SYMATTR Value 10k
SYMBOL res 368 160 R90
WINDOW 0 0 56 VBottom 2
WINDOW 3 32 56 VTop 2
SYMATTR InstName R5
SYMATTR Value 820
SYMBOL Opamps\\LM324-national -384 240 M180
SYMATTR InstName U1
SYMBOL cap -400 480 R0
SYMATTR InstName C1
SYMATTR Value .1µf
SYMBOL schottky -816 496 R270
WINDOW 0 32 32 VTop 2
WINDOW 3 0 32 VBottom 2
SYMATTR InstName D1
SYMATTR Value BAT46WJ
SYMATTR Description Diode
SYMATTR Type diode
SYMBOL voltage -560 -320 R90
WINDOW 0 57 0 VRight 2
WINDOW 123 0 0 Left 2
WINDOW 39 0 0 Left 2
SYMATTR InstName vref
SYMATTR Value 5
SYMBOL Misc\\jumper -96 112 R0
SYMATTR InstName Sponge
SYMBOL Misc\\jumper 176 112 R0
SYMATTR InstName needle
SYMBOL MCP4921 -432 -192 R0
SYMATTR InstName m
SYMBOL Switches\\spst -656 480 R0
SYMATTR InstName pedal
SYMBOL zener -224 544 R180
WINDOW 0 24 64 Left 2
WINDOW 3 155 0 Invisible 2
SYMATTR InstName D2
SYMATTR Value TFZ27B
SYMATTR Description Diode
SYMATTR Type diode
SYMBOL Misc\\jumper -512 416 R0
SYMATTR InstName 200ma_fuse
SYMBOL res 80 -384 R90
WINDOW 0 0 56 VBottom 2
WINDOW 3 32 56 VTop 2
SYMATTR InstName R7
SYMATTR Value 680
SYMBOL cap 112 -320 R0
SYMATTR InstName C2
SYMATTR Value 0.01µ
SYMATTR SpiceLine V=4 Irms=162m Rser=0.395426 Lser=0 mfg="KEMET" pn="C0402C103K7PAC" type="X5R"
SYMBOL voltage -64 -368 R90
WINDOW 0 24 96 Left 2
WINDOW 3 24 16 Left 2
WINDOW 123 0 0 Left 2
WINDOW 39 0 0 Left 2
SYMATTR InstName signal
SYMATTR Value 5
SYMBOL res 256 -384 R90
WINDOW 0 0 56 VBottom 2
WINDOW 3 32 56 VTop 2
SYMATTR InstName R1
SYMATTR Value 1
SYMBOL voltage -1104 480 R270
WINDOW 0 32 56 VTop 2
WINDOW 3 -32 56 VBottom 2
WINDOW 123 0 0 Left 2
WINDOW 39 0 0 Left 2
SYMATTR InstName V2
SYMATTR Value -12
TEXT -920 168 Left 2 !.tran 500us
TEXT -360 -272 Left 1 ;DAC output
TEXT -672 -208 Left 1 ;CS->digital pin 22 or any
TEXT -720 -144 Left 1 ;SCK->digital pin 10/52 for mega
TEXT -720 -48 Left 1 ;SDI-> digital pin 11/51 for mega
TEXT -400 104 Left 1 ;amplifies DAC output x2
TEXT 408 8 Left 2 ;pin 15
TEXT 416 224 Left 1 ;R4 should be a 1% as it's value is needed for\ncurrent calculations. R5 doesn't really matter it's\njust to prevent overvoltage on the analog input \nwhen testing
TEXT -264 584 Left 2 ;TZX13C\nWill blow fuse at V > ~14
